electronic_dc_load_v1
*SPICE Netlist generated by Advanced Sim server on 4/25/2021 10:30:11 PM

*Schematic Netlist:


.OPTION KeepLastSetup=False
*Selected Circuit Analyses:
.TRAN 2E-8 5E-6 0 2E-8
.OP

.END
